trunk/Version8/Source/CMD/test/dlc.dss
Clear 
new circuit.dlc basekv=23 pu=1.0 phases=3 bus1=SourceBus  

new xfmrcode.1000_23_480 phases=3 windings=2 kvas=(1000,1000) kvs=(23,0.48) conns=(wye,wye) xhl=5.721 %R=0.575

New linecode.mtx nphases=3 BaseFreq=60 r1=0.2 x1=0.6 r0=0.7 x0=1.8 c1=0 c0=0 units=mi

new line.feeder bus1=SourceBus bus2=hi linecode=mtx length=1.0
new transformer.xf buses=(hi,lo) xfmrcode=1000_23_480
new pvsystem.pv irradiance=1 pmpp=24.0 phases=3 kVA=26.4 bus1=lo %cutout=0.1 pf=1 kV=.480 %cutin=0.1 conn=wye
// new monitor.monpv element=PVsystem.pv terminal=1
new load.cust kv=.480 bus1=lo xfkva=1000 pf=.9 conn=wye phases=3

Set Voltagebases=[23, 0.48]
calcv

new fault.flt bus1=hi phases=3

Solve
Show Voltages LN Nodes
